Circuit: *** SPICE deck for cell 5400TP094NEW{sch} from library 5400TP094

Unknown MOS level: 58
Unknown MOS level: 58
